Version 4
SHEET 1 900 680
WIRE -128 -80 -128 -112
WIRE -128 32 -128 0
WIRE -128 32 -160 32
WIRE -160 48 -160 32
WIRE 272 48 240 48
WIRE 384 48 352 48
WIRE 416 48 384 48
WIRE 512 48 480 48
WIRE -128 64 -128 32
WIRE 384 160 384 48
WIRE 416 160 384 160
WIRE -128 176 -128 144
WIRE 512 176 512 48
WIRE 512 176 480 176
WIRE 608 176 512 176
WIRE 416 192 384 192
WIRE 720 192 672 192
WIRE 608 208 576 208
WIRE 384 240 384 192
WIRE 576 240 576 208
FLAG -160 48 0
FLAG -128 -112 U+
FLAG 720 192 out
FLAG -128 176 U-
FLAG 384 240 0
FLAG 576 240 0
FLAG 448 144 U+
FLAG 640 160 U+
FLAG 448 208 U-
FLAG 640 224 U-
FLAG 240 48 In
FLAG 16 -144 In
FLAG 16 -64 0
SYMBOL res 368 32 R90
WINDOW 0 0 56 VBottom 2
WINDOW 3 32 56 VTop 2
SYMATTR InstName R1
SYMATTR Value 5k
SYMBOL cap 480 32 R90
WINDOW 0 0 32 VBottom 2
WINDOW 3 32 32 VTop 2
SYMATTR InstName C1
SYMATTR Value 100n
SYMBOL voltage -128 -96 R0
WINDOW 123 0 0 Left 0
WINDOW 39 0 0 Left 0
SYMATTR InstName V2
SYMATTR Value 3.3
SYMBOL voltage -128 48 R0
WINDOW 123 0 0 Left 0
WINDOW 39 0 0 Left 0
SYMATTR InstName V3
SYMATTR Value 3.3
SYMBOL OpAmps\\UniversalOpAmp2 640 192 R0
SYMATTR InstName U4
SYMBOL OpAmps\\UniversalOpAmp2 448 176 R0
SYMATTR InstName U1
SYMBOL voltage 16 -160 R0
WINDOW 123 0 0 Left 0
WINDOW 39 0 0 Left 0
SYMATTR InstName VIn
SYMATTR Value PULSE(-3.3 1 1m 0 0 2m 5m 1)
TEXT -64 280 Left 2 !.tran 0 10m 0 10u
TEXT -120 392 Left 2 !.lib opamp.sub
