Version 4.1
SHEET 1 1108 1332
WIRE 480 -336 352 -336
WIRE 352 -304 352 -336
WIRE 480 -304 480 -336
WIRE 352 -224 288 -224
WIRE 432 -224 352 -224
WIRE 384 -112 352 -112
WIRE 480 -112 480 -208
WIRE 480 -112 448 -112
WIRE -288 -32 -320 -32
WIRE -176 -32 -208 -32
WIRE -32 -32 -176 -32
WIRE -1136 -16 -1136 -48
WIRE -992 -16 -992 -48
WIRE -176 0 -176 -32
WIRE 240 0 160 0
WIRE 352 0 352 -112
WIRE 352 0 320 0
WIRE 384 0 352 0
WIRE 480 16 480 -112
WIRE 480 16 448 16
WIRE 640 16 480 16
WIRE 384 32 352 32
WIRE 768 32 704 32
WIRE -480 80 -512 80
WIRE -176 80 -176 64
WIRE 352 80 352 32
WIRE -1136 96 -1136 64
WIRE -1072 96 -1136 96
WIRE -992 96 -992 64
WIRE -992 96 -1072 96
WIRE -1072 112 -1072 96
WIRE 768 128 768 112
WIRE 816 128 768 128
WIRE -480 144 -480 80
WIRE 768 144 768 128
WIRE 0 224 0 208
WIRE 128 224 128 208
WIRE 128 224 0 224
WIRE -480 240 -480 144
WIRE 128 240 128 224
WIRE -480 288 -480 240
WIRE -256 288 -480 288
FLAG -1072 112 0
FLAG -704 -272 GPIO1
FLAG -704 -192 0
FLAG -1136 -48 Vin
FLAG 416 -16 Vdd
FLAG 416 48 0
FLAG 128 240 0
FLAG 64 -96 Vdd
FLAG -32 96 GPIO1
FLAG -32 32 Vdd
FLAG 352 80 Vref
FLAG -320 -32 Vin
FLAG 640 48 Vref
FLAG 672 0 Vdd
FLAG 672 64 0
FLAG 816 128 out
FLAG 768 224 0
FLAG -176 80 0
FLAG -992 -48 Vdd
FLAG -176 288 Vref
FLAG -416 144 0
FLAG -640 176 0
FLAG -768 80 Vdd
FLAG -416 240 0
FLAG 480 -336 Vref
FLAG 288 -224 GPIO2
FLAG -496 -272 GPIO2
FLAG -496 -192 0
SYMBOL res 336 -16 R90
WINDOW 0 0 56 VBottom 2
WINDOW 3 20 56 VBottom 2
SYMATTR InstName R1
SYMATTR Value 100k
SYMBOL cap 448 -128 R90
WINDOW 0 0 32 VBottom 2
WINDOW 3 32 32 VTop 2
SYMATTR InstName C1
SYMATTR Value 130p
SYMATTR SpiceLine V=50 Irms=0 Rser=0 Lser=0 mfg="Murata" pn="GCM1555C1H131JA16" type="C0G"
SYMBOL voltage -992 -32 R0
WINDOW 123 0 0 Left 0
WINDOW 39 0 0 Left 0
SYMATTR InstName V2
SYMATTR Value 5
SYMBOL voltage -704 -288 R0
WINDOW 123 0 0 Left 0
WINDOW 39 0 0 Left 0
WINDOW 3 24 96 Invisible 2
SYMATTR Value PULSE(0 3.3 0 10n 10n 25u 100m 100)
SYMATTR InstName MC1
SYMBOL voltage -1136 -32 R0
WINDOW 123 0 0 Left 0
WINDOW 39 24 124 Left 2
SYMATTR SpiceLine Rser=1000
SYMATTR InstName Vin
SYMATTR Value SINE(3.29 50u 50)
SYMBOL Switches\\ADG419 64 48 R0
SYMATTR InstName U3
SYMBOL res 752 16 R0
SYMATTR InstName R2
SYMATTR Value 12k
SYMBOL res 752 128 R0
SYMATTR InstName R3
SYMATTR Value 20k
SYMBOL res -192 -48 R90
WINDOW 0 0 56 VBottom 2
WINDOW 3 32 56 VTop 2
SYMATTR InstName R4
SYMATTR Value 1k
SYMBOL cap -192 0 R0
SYMATTR InstName C2
SYMATTR Value 1m
SYMBOL Comparators\\LTC6752 672 -32 R0
SYMATTR InstName U1
SYMBOL References\\ADR4533 -640 80 R0
SYMATTR InstName U4
SYMBOL cap -480 160 R270
WINDOW 0 32 32 VTop 2
WINDOW 3 0 32 VBottom 2
SYMATTR InstName C3
SYMATTR Value 10µ
SYMBOL res -160 272 R90
WINDOW 0 0 56 VBottom 2
WINDOW 3 32 56 VTop 2
SYMATTR InstName R5
SYMATTR Value 0
SYMBOL cap -416 224 R90
WINDOW 0 0 32 VBottom 2
WINDOW 3 32 32 VTop 2
SYMATTR InstName C4
SYMATTR Value 10m
SYMBOL OpAmps\\AD8605 416 -48 R0
SYMATTR InstName U5
SYMBOL pmos 432 -304 R0
SYMATTR InstName M1
SYMBOL res 336 -320 R0
SYMATTR InstName R6
SYMATTR Value 10k
SYMBOL voltage -496 -288 R0
WINDOW 123 0 0 Left 0
WINDOW 39 0 0 Left 0
WINDOW 3 24 96 Invisible 2
SYMATTR Value PULSE(3.3 0 0.05 10n 10n 0.05 0.1 100)
SYMATTR InstName MC2
TEXT -992 -256 Left 2 !.tran 0 1 0
TEXT 568 -96 Left 2 ;Komperator
