Version 4
SHEET 1 1108 1332
WIRE -208 -464 -208 -496
WIRE 16 -464 16 -496
WIRE -256 -384 -272 -384
WIRE -32 -384 -48 -384
WIRE -208 -304 -208 -368
WIRE 16 -304 16 -368
WIRE 384 -112 352 -112
WIRE 480 -112 448 -112
WIRE -1264 -16 -1264 -48
WIRE -1136 -16 -1136 -48
WIRE -992 -16 -992 -48
WIRE 240 0 160 0
WIRE 352 0 352 -112
WIRE 352 0 320 0
WIRE 384 0 352 0
WIRE 160 16 160 0
WIRE 160 16 -384 16
WIRE 480 16 480 -112
WIRE 480 16 448 16
WIRE 640 16 480 16
WIRE 384 32 352 32
WIRE 768 32 704 32
WIRE 352 80 352 32
WIRE -1264 96 -1264 64
WIRE -1136 96 -1136 64
WIRE -1136 96 -1264 96
WIRE -1072 96 -1136 96
WIRE -992 96 -992 64
WIRE -992 96 -1072 96
WIRE -1072 112 -1072 96
WIRE 768 128 768 112
WIRE 816 128 768 128
WIRE 768 144 768 128
WIRE -544 240 -544 224
WIRE -416 240 -416 224
WIRE -416 240 -544 240
WIRE -416 256 -416 240
FLAG -1072 112 0
FLAG -1136 480 GPIO1
FLAG -1136 560 0
FLAG -1136 -48 Vin
FLAG -992 -48 Vdd
FLAG 416 -16 Vdd
FLAG 416 48 0
FLAG -992 480 GPIO2
FLAG -992 560 0
FLAG -1264 -48 Vref
FLAG -416 256 0
FLAG -480 -80 Vdd
FLAG -576 112 GPIO1
FLAG -576 48 Vdd
FLAG 352 80 Vref
FLAG -576 -16 Vin
FLAG 640 48 Vref
FLAG 672 0 Vdd
FLAG 672 64 0
FLAG 816 128 out
FLAG 768 224 0
FLAG -208 -496 Vin
FLAG 16 -496 Vdd
FLAG -848 480 GPIO3
FLAG -848 560 0
FLAG -272 -384 GPIO2
FLAG -48 -384 GPIO3
SYMBOL res 336 -16 R90
WINDOW 0 0 56 VBottom 2
WINDOW 3 20 56 VBottom 2
SYMATTR InstName R1
SYMATTR Value 100k
SYMBOL cap 448 -128 R90
WINDOW 0 0 32 VBottom 2
WINDOW 3 32 32 VTop 2
SYMATTR InstName C1
SYMATTR Value 130p
SYMATTR SpiceLine V=50 Irms=0 Rser=0 Lser=0 mfg="Murata" pn="GCM1555C1H131JA16" type="C0G"
SYMBOL voltage -992 -32 R0
WINDOW 123 0 0 Left 0
WINDOW 39 0 0 Left 0
SYMATTR InstName V2
SYMATTR Value 5
SYMBOL voltage -1136 464 R0
WINDOW 123 0 0 Left 0
WINDOW 39 0 0 Left 0
WINDOW 3 24 96 Invisible 2
SYMATTR Value PULSE(0 3.3 0 1n 1n 25u 100m 100)
SYMATTR InstName MC1
SYMBOL voltage -1136 -32 R0
WINDOW 123 0 0 Left 0
WINDOW 39 0 0 Left 0
SYMATTR InstName Vin
SYMATTR Value 3.299525
SYMBOL voltage -992 464 R0
WINDOW 123 0 0 Left 0
WINDOW 39 0 0 Left 0
WINDOW 3 24 96 Invisible 2
SYMATTR Value PULSE(0 5 0 1n 1n 25u 100m 100)
SYMATTR InstName MC2
SYMBOL voltage -1264 -32 R0
WINDOW 123 0 0 Left 0
WINDOW 39 0 0 Left 0
SYMATTR InstName V1
SYMATTR Value 3.3
SYMBOL Switches\\ADG419 -480 64 R0
SYMATTR InstName U3
SYMBOL OpAmps\\AD8606 416 -48 R0
SYMATTR InstName U2
SYMBOL res 752 16 R0
SYMATTR InstName R2
SYMATTR Value 12k
SYMBOL res 752 128 R0
SYMATTR InstName R3
SYMATTR Value 20k
SYMBOL OpAmps\\LT1490A 672 -32 R0
SYMATTR InstName U5
SYMBOL voltage -848 464 R0
WINDOW 123 0 0 Left 0
WINDOW 39 0 0 Left 0
WINDOW 3 24 96 Invisible 2
SYMATTR Value PULSE(0 5 0 1n 1n 25u 100m 100)
SYMATTR InstName MC3
SYMBOL res -224 -320 R0
SYMATTR InstName R4
SYMATTR Value 10
SYMBOL res 0 -320 R0
SYMATTR InstName R5
SYMATTR Value 10
SYMBOL pmos -256 -464 R0
SYMATTR InstName M1
SYMATTR Value AO6407
SYMBOL nmos -32 -464 R0
SYMATTR InstName M2
SYMATTR Value AO6408
TEXT -992 -256 Left 2 !.tran 0 1 0 0.01m
TEXT 568 -96 Left 2 ;Komperator
