Version 4.1
SHEET 1 1108 1332
WIRE 384 -112 352 -112
WIRE 480 -112 448 -112
WIRE 240 0 160 0
WIRE 352 0 352 -112
WIRE 352 0 320 0
WIRE 384 0 352 0
WIRE 480 16 480 -112
WIRE 480 16 448 16
WIRE 640 16 480 16
WIRE 384 32 352 32
WIRE 752 32 704 32
WIRE 768 32 752 32
WIRE 640 48 608 48
WIRE 752 48 752 32
WIRE 800 48 752 48
WIRE 352 80 352 32
WIRE 608 112 608 48
WIRE 688 112 608 112
WIRE 688 176 688 112
WIRE 688 176 672 176
WIRE 720 176 688 176
WIRE 800 176 800 48
WIRE 0 224 0 208
WIRE 128 224 128 208
WIRE 128 224 0 224
WIRE 128 240 128 224
WIRE 384 304 384 272
WIRE 528 304 528 272
WIRE 384 416 384 384
WIRE 448 416 384 416
WIRE 528 416 528 384
WIRE 528 416 448 416
WIRE 640 416 640 384
WIRE 640 416 528 416
WIRE 448 432 448 416
FLAG 448 432 0
FLAG 272 304 GPIO1
FLAG 272 384 0
FLAG 384 272 Vin
FLAG 416 -16 Vdd
FLAG 416 48 0
FLAG 128 240 0
FLAG 64 -96 Vdd
FLAG -32 96 GPIO1
FLAG -32 32 Vdd
FLAG 352 80 Vref
FLAG -32 -32 Vin
FLAG 592 176 Vref
FLAG 672 0 Vdd
FLAG 672 64 0
FLAG 528 272 Vdd
FLAG 640 304 Vref
FLAG 768 32 out
SYMBOL res 336 -16 R90
WINDOW 0 0 56 VBottom 2
WINDOW 3 20 56 VBottom 2
SYMATTR InstName R1
SYMATTR Value 100k
SYMBOL cap 448 -128 R90
WINDOW 0 0 32 VBottom 2
WINDOW 3 32 32 VTop 2
SYMATTR InstName C1
SYMATTR Value 1n
SYMATTR SpiceLine V=50 Irms=0 Rser=0 Lser=0 mfg="Murata" pn="GCM1555C1H131JA16" type="C0G"
SYMBOL voltage 528 288 R0
WINDOW 123 0 0 Left 0
WINDOW 39 0 0 Left 0
SYMATTR InstName V2
SYMATTR Value 5
SYMBOL voltage 272 288 R0
WINDOW 123 0 0 Left 0
WINDOW 39 0 0 Left 0
WINDOW 3 24 96 Invisible 2
SYMATTR Value PULSE(0 3.3 0 10n 10n 160u 400u 100)
SYMATTR InstName MC1
SYMBOL voltage 384 288 R0
WINDOW 123 0 0 Left 0
WINDOW 39 24 124 Left 2
SYMATTR InstName Vin
SYMATTR Value 2
SYMBOL Switches\\ADG419 64 48 R0
SYMATTR InstName U3
SYMBOL Comparators\\LTC6752 672 -32 R0
SYMATTR InstName U1
SYMBOL OpAmps\\AD8605 416 -48 R0
SYMATTR InstName U5
SYMBOL voltage 640 288 R0
WINDOW 123 0 0 Left 0
WINDOW 39 0 0 Left 0
SYMATTR InstName V1
SYMATTR Value 3.3
SYMBOL res 816 160 R90
WINDOW 0 0 56 VBottom 2
WINDOW 3 32 56 VTop 2
SYMATTR InstName R2
SYMATTR Value 5Meg
SYMBOL res 688 160 R90
WINDOW 0 0 56 VBottom 2
WINDOW 3 32 56 VTop 2
SYMATTR InstName R3
SYMATTR Value 10k
TEXT 8 296 Left 2 !.tran 0 10m 0
