Version 4
SHEET 1 1108 1332
WIRE -304 -320 -304 -368
WIRE -240 -320 -304 -320
WIRE -64 -320 -64 -432
WIRE -64 -320 -160 -320
WIRE -64 -192 -64 -320
WIRE -112 -176 -128 -176
WIRE -304 -160 -304 -320
WIRE -128 -160 -128 -176
WIRE -128 -160 -304 -160
WIRE 384 -112 352 -112
WIRE 480 -112 480 -176
WIRE 480 -112 448 -112
WIRE 192 -96 48 -96
WIRE -400 -80 -400 -128
WIRE -304 -80 -400 -80
WIRE -400 -48 -400 -80
WIRE -1136 -16 -1136 -48
WIRE -992 -16 -992 -48
WIRE 48 -16 48 -96
WIRE 80 -16 48 -16
WIRE 192 0 192 -96
WIRE 192 0 144 0
WIRE 240 0 192 0
WIRE 352 0 352 -112
WIRE 352 0 320 0
WIRE 384 0 352 0
WIRE -64 16 -64 -96
WIRE 80 16 -64 16
WIRE 480 16 480 -112
WIRE 480 16 448 16
WIRE 496 16 480 16
WIRE 576 16 496 16
WIRE -304 32 -304 -80
WIRE 384 32 352 32
WIRE 688 32 640 32
WIRE 576 48 544 48
WIRE -544 80 -592 80
WIRE -400 80 -400 32
WIRE -400 80 -464 80
WIRE -368 80 -400 80
WIRE 352 80 352 32
WIRE 544 80 544 48
WIRE 608 80 608 64
WIRE -1136 96 -1136 64
WIRE -1072 96 -1136 96
WIRE -992 96 -992 64
WIRE -992 96 -1072 96
WIRE -1072 112 -1072 96
WIRE -992 128 -992 96
WIRE -64 144 -64 16
WIRE -304 176 -304 128
WIRE -256 176 -304 176
WIRE -128 176 -176 176
WIRE -304 224 -304 176
WIRE -128 224 -128 176
WIRE -112 224 -128 224
WIRE -992 240 -992 208
WIRE -304 352 -304 304
WIRE -64 352 -64 240
WIRE -64 352 -304 352
WIRE -64 400 -64 352
FLAG -1072 112 0
FLAG 352 80 0
FLAG 544 80 0
FLAG 608 80 0
FLAG -1136 480 GPIO1
FLAG -1136 560 0
FLAG -1136 -48 Vin
FLAG -992 -48 Vref
FLAG 416 -16 Vref
FLAG 608 0 Vref
FLAG -992 240 Vref_neg
FLAG 416 48 Vref_neg
FLAG -992 480 GPIO2
FLAG -992 560 0
FLAG -64 400 Vref_neg
FLAG -592 80 GPIO1
FLAG -400 -128 Vref
FLAG 112 32 Vref_neg
FLAG 112 -32 Vref
FLAG -64 -432 Vin
FLAG -304 -368 GPIO2
FLAG -864 480 GPIO3
FLAG -864 560 0
FLAG 688 32 out
FLAG 480 -432 0
FLAG 416 -304 out
FLAG 496 96 0
SYMBOL res 336 -16 R90
WINDOW 0 0 56 VBottom 2
WINDOW 3 20 56 VBottom 2
SYMATTR InstName R1
SYMATTR Value 100k
SYMBOL cap 448 -128 R90
WINDOW 0 0 32 VBottom 2
WINDOW 3 32 32 VTop 2
SYMATTR InstName C1
SYMATTR Value 300n
SYMBOL voltage -992 -32 R0
WINDOW 123 0 0 Left 0
WINDOW 39 0 0 Left 0
SYMATTR InstName V2
SYMATTR Value 3.3
SYMBOL voltage -992 112 R0
WINDOW 123 0 0 Left 0
WINDOW 39 0 0 Left 0
SYMATTR InstName V3
SYMATTR Value 3.3
SYMBOL OpAmps\\UniversalOpAmp2 608 32 R0
SYMATTR InstName U4
SYMBOL OpAmps\\UniversalOpAmp2 416 16 R0
SYMATTR InstName U1
SYMBOL voltage -1136 464 R0
WINDOW 123 0 0 Left 0
WINDOW 39 0 0 Left 0
WINDOW 3 24 96 Invisible 2
SYMATTR Value PULSE(3.3 0 100m 1n 1n 10m 500m 100)
SYMATTR InstName MC1
SYMBOL voltage -1136 -32 R0
WINDOW 123 0 0 Left 0
WINDOW 39 0 0 Left 0
SYMATTR InstName Vin
SYMATTR Value 0.2
SYMBOL voltage -992 464 R0
WINDOW 123 0 0 Left 0
WINDOW 39 0 0 Left 0
WINDOW 3 24 96 Invisible 2
SYMATTR Value PULSE(3.3 0 110m 1n 1n 390m 500m 100)
SYMATTR InstName MC2
SYMBOL res -560 96 R270
WINDOW 0 32 56 VTop 2
WINDOW 3 0 56 VBottom 2
SYMATTR InstName R2
SYMATTR Value 1k
SYMBOL res -384 48 R180
WINDOW 0 36 76 Left 2
WINDOW 3 36 40 Left 2
SYMATTR InstName R3
SYMATTR Value 10k
SYMBOL res -288 320 R180
WINDOW 0 36 76 Left 2
WINDOW 3 36 40 Left 2
SYMATTR InstName R4
SYMATTR Value 10k
SYMBOL res -272 192 R270
WINDOW 0 32 56 VTop 2
WINDOW 3 0 56 VBottom 2
SYMATTR InstName R5
SYMATTR Value 100
SYMBOL pnp -368 128 M180
SYMATTR InstName Q1
SYMBOL OpAmps\\UniversalOpAmp2 112 0 R0
SYMATTR InstName U2
SYMATTR SpiceLine2 En=0 Enk=0 In=0 Ink=0 Rin=1000Meg
SYMBOL voltage -864 464 R0
WINDOW 123 0 0 Left 0
WINDOW 39 0 0 Left 0
WINDOW 3 24 96 Invisible 2
SYMATTR Value PULSE(0 3.3 0 1n 1n 1m 500m 1)
SYMATTR InstName MC3
SYMBOL res -256 -304 R270
WINDOW 0 32 56 VTop 2
WINDOW 3 0 56 VBottom 2
SYMATTR InstName R6
SYMATTR Value 10k
SYMBOL pmos -112 -96 M180
SYMATTR InstName M4
SYMBOL nmos -112 144 R0
SYMATTR InstName M1
SYMBOL npn 416 -352 R0
SYMATTR InstName Q2
SYMBOL res 464 -448 R0
SYMATTR InstName R7
SYMATTR Value 0
SYMBOL res 464 -272 R0
SYMATTR InstName R8
SYMATTR Value 0
SYMBOL res 480 0 R0
SYMATTR InstName R9
SYMATTR Value 1Meg
TEXT -992 -256 Left 2 !.tran 0 4 0 0.1m
TEXT 568 -96 Left 2 ;Komperator
TEXT -248 -536 Left 2 ;Eingangsstufe
